/*--------------------------------*- C++ -*----------------------------------*\
  =========                 |
  \\      /  F ield         | OpenFOAM: The Open Source CFD Toolbox
   \\    /   O peration     | Website:  https://openfoam.org
    \\  /    A nd           | Version:  10
     \\/     M anipulation  |
\*---------------------------------------------------------------------------*/
FoamFile
{
    format      ascii;
    class       volScalarField;
    object      T;
}
// * * * * * * * * * * * * * * * * * * * * * * * * * * * * * * * * * * * * * //

dimensions      [0 0 0 1 0 0 0];

internalField   uniform 283.15;

boundaryField
{
    inlet
    {
        type            fixedValue;
        value           uniform 303.15;
    }

    outlet1
    {
        type            fixedValue;
        value           $internalField;
    }

    outlet2
    {
        type            fixedValue;
        value           $internalField;
    }

    defaultFaces
    {
        type            zeroGradient;
    }
}

// ************************************************************************* //
